199
Positively charged domains
N     29.830  26.590  34.400
CA    31.080  25.970  34.680
C     32.320  26.510  34.040
CA    33.030  27.210  31.740
C     33.230  28.680  31.870
N     41.070  36.720  25.680
CA    39.970  36.020  26.270
N     36.150  37.110  23.780
CA    35.310  35.960  23.760
C     34.250  36.010  24.810
CA    32.420  39.750  26.450
C     31.160  39.550  25.680
CA    28.170  38.470  28.950
C     27.110  39.290  28.280
N     4.670  41.290  8.150
CA    5.940  40.750  7.770
C     6.420  39.630  8.610
CA    6.590  38.800  10.870
C     5.850  37.520  10.740
N     3.940  27.790  14.740
CA    4.210  29.190  14.710
N     69.560  29.750  14.640
CA    68.540  29.620  15.630
C     68.920  30.240  16.930
N     68.380  33.880  16.400
CA    66.960  34.030  16.550
C     66.450  33.970  17.940
N     27.320  23.740  5.100
CA    28.350  24.720  5.230
C     28.930  25.390  4.030
CA    29.750  24.980  1.740
N     26.820  27.310  50.360
CA    27.660  26.700  51.340
N     23.730  25.720  52.620
CA    22.860  24.690  52.140
C     23.640  23.430  51.990
CA    23.030  21.500  55.930
C     22.600  20.160  55.450
N     33.050  45.110  50.370
CA    33.860  46.180  49.870
C     33.150  47.480  50.010
N     31.870  47.530  49.590
CA    30.960  48.630  49.680
N     23.470  54.240  55.380
CA    24.060  53.630  54.230
C     22.320  48.870  56.090
CA    24.440  45.080  55.340
C     23.280  44.170  55.120
N     11.320  34.910  13.010
CA    12.650  35.090  13.520
C     13.490  33.910  13.880
CA    13.490  31.720  15.030
C     13.910  30.790  13.950
CA    14.340  22.180  13.060
N     11.270  23.050  10.270
CA    9.990  22.420  10.100
C     9.090  22.450  11.290
CA    6.730  26.120  11.300
C     5.480  25.470  11.770
CA    20.530  43.170  1.470
C     20.510  41.750  1.920
CA    20.530  40.320  3.940
C     19.320  39.480  3.700
N     14.640  32.100  8.680
CA    15.690  33.060  8.530
N     12.400  35.680  7.780
CA    11.620  36.240  8.850
C     12.420  36.850  9.950
CA    13.250  41.560  9.190
C     12.530  41.630  10.500
CA    12.760  32.420  58.070
C     11.920  32.900  56.930
N     10.940  33.790  57.120
CA    10.190  34.410  56.070
C     11.090  35.260  55.230
N     8.950  42.850  50.310
CA    8.610  41.720  51.120
CA    10.360  45.320  54.480
C     9.110  45.010  55.230
CA    10.510  43.350  59.210
C     9.720  44.350  0.570
N     64.040  41.600  58.040
CA    65.370  42.120  58.100
CA    63.100  29.030  54.840
C     62.630  28.970  56.250
CA    60.030  32.740  56.510
C     58.950  32.070  57.290
N     26.400  6.880  57.500
CA    25.300  6.030  57.790
N     24.760  7.190  0.460
CA    23.960  7.910  1.410
C     23.240  9.090  0.850
CA    19.790  16.120  4.340
CA    23.640  19.040  2.010
C     24.350  18.540  3.230
C     28.770  17.070  2.250
N     36.420  39.360  5.450
CA    35.540  40.030  4.530
C     34.480  39.190  3.910
CA    33.930  36.850  3.200
N     27.950  27.780  6.540
CA    31.400  28.780  10.470
C     32.530  28.150  9.720
CA    36.010  30.680  10.100
C     37.190  29.780  10.250
CA    50.800  57.050  45.590
C     49.840  55.950  45.280
CA    47.910  54.600  46.080
C     46.820  55.120  45.210
CA    38.660  53.290  44.820
N     38.300  57.790  45.080
CA    37.570  58.480  46.100
C     37.660  57.950  47.490
CA    41.370  59.790  49.210
C     40.700  60.090  50.500
N     5.260  28.910  54.640
CA    4.970  30.310  54.570
C     5.750  30.970  53.480
CA    7.390  30.850  51.740
C     6.530  30.550  50.560
N     7.450  29.650  40.000
CA    8.010  29.900  41.290
N     6.200  25.960  42.060
CA    6.820  24.740  41.650
C     8.290  24.690  41.860
CA    8.020  22.560  45.770
C     9.050  21.540  45.440
CA    15.790  9.420  22.970
C     14.400  8.940  22.750
CA    12.130  9.340  22.070
C     12.050  8.420  20.910
CA    5.200  5.490  15.900
N     8.080  6.810  12.890
CA    7.820  7.810  11.910
C     7.190  9.040  12.470
CA    10.430  11.650  13.490
C     9.840  12.890  12.910
N     17.250  38.320  8.970
CA    16.510  38.610  7.780
C     16.260  37.460  6.870
CA    17.240  35.440  5.820
C     16.410  34.360  6.440
CA    17.210  25.900  5.700
CA    19.500  25.490  10.620
C     20.740  25.760  9.830
CA    21.930  29.420  11.930
C     23.380  29.050  11.970
CA    26.450  13.010  23.680
C     26.620  12.990  22.200
CA    26.250  14.180  20.090
C     27.620  14.650  19.770
N     32.560  18.920  12.410
CA    31.420  18.300  13.020
N     32.310  21.300  16.000
CA    31.970  22.680  15.840
C     30.610  23.050  15.380
CA    28.520  23.410  19.330
C     27.660  24.600  19.070
N     64.370  6.390  44.610
CA    63.280  7.300  44.490
C     63.230  8.270  45.620
CA    63.520  8.680  48.010
C     64.640  9.650  47.920
N     3.050  11.590  51.410
CA    4.080  10.710  51.880
C     3.590  9.600  52.740
CA    2.160  6.460  49.620
C     3.100  5.400  50.080
CA    14.760  9.010  6.340
C     13.480  9.660  6.760
N     13.620  10.490  7.800
CA    12.570  11.280  8.380
C     12.070  12.320  7.450
CA    7.280  19.560  8.570
CA    11.530  22.690  8.150
C     11.590  22.670  9.640
CA    15.510  20.860  10.530
C     15.940  21.800  11.610
CA    3.730  15.670  8.380
C     4.940  16.530  8.400
N     5.690  16.610  7.280
CA    6.880  17.380  7.070
CA    11.120  24.590  2.420
N     7.120  24.810  0.460
CA    6.890  24.750  58.530
C     7.490  23.610  57.780
CA    4.470  20.520  57.940
C     4.520  20.140  56.510
N     54.460  26.510  22.490
CA    53.230  26.380  21.780
C     53.340  25.710  20.450
N     54.310  26.050  19.600
CA    54.600  25.380  18.370
N     59.610  18.760  12.130
CA    59.050  19.970  12.650
CA    63.400  19.400  15.710
C     63.760  20.760  15.210
CA    64.120  23.110  19.050
C     65.380  23.760  18.590
