222
negatively charged domains
CA    37.030  28.400  34.440
C     37.740  29.220  33.420
N     41.980  30.940  33.120
CA    43.130  30.710  32.290
N     44.660  38.890  29.280
CA    43.280  39.110  29.560
C     42.450  39.670  28.450
N     42.970  40.560  27.590
CA    42.270  41.130  26.490
C     41.740  40.250  25.410
CA    26.620  40.890  26.460
C     25.630  40.340  25.490
CA    8.400  34.570  7.970
C     8.420  33.530  9.050
CA    9.740  29.330  7.440
N     6.530  21.680  7.820
CA    5.240  22.290  7.790
C     4.360  22.270  8.990
N     4.340  21.170  9.770
CA    3.690  21.130  11.040
C     3.960  22.250  11.990
N     66.810  32.940  18.730
CA    66.480  32.820  20.110
C     66.950  33.900  21.030
CA    30.680  29.920  1.740
C     30.720  30.410  0.330
CA    31.630  34.870  57.670
N     28.040  36.270  49.260
CA    26.750  35.910  49.780
C     26.070  34.820  49.030
N     26.300  34.800  47.700
CA    25.710  33.880  46.770
C     26.270  32.510  46.910
N     22.740  19.850  54.150
CA    22.340  18.600  53.580
C     23.150  17.470  54.130
CA    34.240  52.580  51.120
C     33.160  53.550  51.450
CA    34.050  58.840  53.540
CA    26.890  60.450  0.790
C     25.570  59.760  0.830
N     24.440  60.480  0.810
CA    23.170  59.820  0.830
C     22.870  59.010  58.880
N     22.100  44.810  55.150
CA    20.840  44.230  54.800
C     20.720  43.630  53.440
CA    18.090  32.050  13.500
C     18.610  30.660  13.390
CA    23.250  28.580  11.690
N     22.840  19.650  8.800
CA    21.760  19.960  7.920
C     20.420  19.310  8.030
N     20.380  18.000  8.320
CA    19.160  17.300  8.570
C     18.470  17.710  9.820
N     5.510  24.220  12.260
CA    4.440  23.530  12.910
C     3.950  24.190  14.150
CA    20.650  37.120  0.040
C     20.270  35.800  0.620
CA    19.690  31.290  58.180
N     13.470  25.590  2.530
CA    12.410  26.550  2.550
C     11.810  26.820  3.890
N     11.670  25.780  4.730
CA    11.210  26.000  6.060
C     12.120  26.800  6.940
CA    12.500  40.930  12.820
C     13.530  41.730  13.540
CA    12.620  32.510  52.010
C     12.270  33.490  50.940
N     14.310  33.770  45.720
CA    13.890  33.940  44.360
C     14.870  34.710  43.550
N     13.900  43.260  42.520
CA    14.410  43.680  43.790
C     13.560  44.670  44.510
N     12.840  45.530  43.770
CA    11.860  46.390  44.350
C     10.840  45.640  45.140
N     8.700  44.860  59.270
CA    7.590  45.540  0.440
C     6.750  44.690  1.340
N     0.040  39.380  55.430
CA    1.340  39.150  55.960
C     1.890  37.800  55.630
CA    6.220  35.630  53.530
N     5.710  26.760  51.070
CA    4.470  26.910  50.360
N     3.300  25.000  51.210
CA    2.210  24.270  51.770
N     59.120  30.800  57.680
CA    58.200  30.030  58.460
C     57.930  30.640  0.340
N     20.700  7.710  57.630
CA    19.670  7.250  58.510
C     18.790  8.310  59.080
CA    13.810  8.930  58.870
N     10.630  18.080  0.470
CA    11.720  18.630  59.140
N     12.170  20.300  1.360
CA    12.950  21.090  2.260
C     13.840  20.320  3.180
N     28.350  17.670  3.380
CA    29.180  18.240  4.400
C     29.930  17.220  5.190
N     30.300  39.140  4.620
CA    29.470  38.970  3.460
C     28.500  37.840  3.370
N     19.180  30.750  7.040
CA    19.960  30.640  8.230
N     20.290  28.210  8.410
CA    20.980  26.970  8.610
C     22.140  26.660  7.730
N     36.990  28.470  10.020
CA    38.020  27.470  10.030
C     39.150  27.750  9.110
N     48.410  55.220  41.590
CA    48.250  53.840  41.230
C     46.920  53.390  40.730
CA    45.430  51.010  36.800
N     36.820  50.850  35.200
CA    36.640  52.220  35.570
C     35.640  52.510  36.630
N     34.450  51.890  36.760
CA    33.440  52.080  37.750
C     33.920  51.720  39.110
CA    39.050  59.440  52.100
C     39.850  58.780  53.170
N     3.370  32.970  50.770
CA    3.720  34.320  50.430
C     3.810  34.500  48.960
CA    1.230  37.630  46.230
N     1.620  32.770  35.550
CA    2.620  31.880  35.030
C     3.930  31.870  35.730
CA    11.060  21.250  44.000
C     12.210  21.450  44.930
N     13.970  4.850  22.280
CA    13.080  4.130  23.140
C     11.940  3.490  22.430
N     5.110  61.360  16.040
CA    6.010  61.830  15.040
C     5.560  62.850  14.050
N     4.330  62.680  13.530
CA    3.700  63.580  12.610
C     3.400  64.900  13.210
N     8.540  12.950  12.570
CA    7.860  14.070  12.000
C     7.910  15.290  12.860
N     12.740  35.340  6.450
CA    12.400  35.200  5.060
C     12.060  33.790  4.740
C     6.870  30.840  2.290
N     8.120  22.980  3.680
CA    8.230  22.760  5.090
C     9.360  21.940  5.620
N     9.560  20.770  4.990
CA    10.690  19.920  5.220
C     11.970  20.560  4.830
N     23.770  28.020  11.190
CA    25.140  27.620  11.220
C     25.970  28.690  10.590
CA    29.880  10.690  19.400
C     30.610  11.090  18.160
CA    34.910  8.840  16.110
N     40.100  13.810  10.950
CA    40.210  14.950  11.800
C     39.720  16.280  11.350
N     39.930  16.630  10.070
CA    39.360  17.760  9.410
C     37.870  17.750  9.370
N     27.580  25.000  17.790
CA    26.830  26.110  17.290
C     25.390  25.990  17.630
N     63.750  12.350  45.110
CA    62.780  13.210  45.720
C     63.370  14.280  46.570
CA    63.210  19.650  46.860
N     0.540  23.240  50.290
CA    1.480  22.260  49.850
C     2.190  21.540  50.950
N     2.590  22.300  51.980
CA    3.280  21.670  53.070
C     2.510  20.670  53.870
N     3.750  5.580  51.240
CA    4.530  4.670  52.020
C     3.650  3.570  52.510
N     10.040  10.420  4.880
CA    8.840  10.090  5.570
C     7.810  11.170  5.550
CA    3.200  11.600  3.490
CA    2.430  23.590  2.870
C     2.930  23.010  4.150
CA    15.140  23.680  13.090
C     15.140  23.090  14.460
N     6.050  20.400  10.240
CA    7.380  20.390  10.760
C     8.290  21.460  10.270
CA    10.570  25.070  12.700
C     11.170  25.940  13.740
N     11.100  32.560  8.770
CA    9.930  32.420  7.960
C     10.150  32.530  6.490
N     11.080  33.380  6.020
CA    11.320  33.470  4.610
N     5.570  20.440  55.720
CA    5.740  20.000  54.370
C     6.230  18.600  54.220
CA    50.990  21.910  18.240
C     51.430  20.840  17.300
CA    48.720  16.470  15.470
N     54.600  11.240  10.570
CA    55.710  11.070  11.460
C     57.020  11.610  10.990
N     57.310  11.490  9.690
CA    58.400  12.190  9.070
C     58.460  13.680  9.120
N     65.750  23.770  17.300
CA    66.820  24.510  16.710
C     66.800  25.970  17.000
