472
Polar charge-neutral domains
N     23.240  25.740  30.740
CA    23.700  24.750  31.660
C     24.480  23.630  31.060
N     27.490  23.840  29.580
CA    28.830  23.980  30.070
N     28.100  26.270  30.330
CA    28.230  27.690  30.430
C     28.560  28.260  31.760
CA    28.110  28.230  34.180
C     29.460  27.850  34.700
CA    34.370  30.790  35.830
C     35.740  30.280  35.530
CA    41.020  31.250  35.380
C     42.160  31.020  34.450
N     47.790  31.400  31.220
CA    48.810  31.440  30.220
C     48.530  32.400  29.120
N     46.920  36.480  27.760
CA    46.510  37.810  28.050
N     42.510  39.200  25.080
CA    42.110  38.250  24.080
C     40.980  37.380  24.510
CA    38.060  39.120  27.410
CA    29.980  38.300  23.940
C     29.130  37.360  24.720
N     4.940  45.700  10.710
CA    5.620  44.680  11.460
C     4.940  43.400  11.780
CA    2.890  42.240  12.290
CA    2.310  41.280  8.680
C     3.510  40.610  8.110
CA    5.040  35.840  6.760
C     6.200  34.930  6.980
CA    6.950  30.330  5.070
C     8.300  29.910  5.520
N     13.250  26.920  7.710
CA    14.060  26.240  8.670
C     13.390  25.210  9.520
N     9.680  22.390  9.540
CA    8.800  21.530  8.820
N     5.260  22.560  12.190
CA    5.810  23.560  13.050
N     2.710  25.650  11.240
CA    1.060  30.850  18.340
C     0.870  32.320  18.330
N     27.050  15.170  3.810
CA    25.780  15.820  3.800
C     25.700  17.100  4.550
CA    29.340  19.810  4.890
C     26.580  21.890  2.270
CA    25.240  22.920  4.110
C     26.170  24.030  4.460
N     26.840  28.190  2.240
CA    27.010  29.540  2.690
C     28.240  30.180  2.130
CA    28.260  34.880  0.010
C     29.540  35.370  58.840
N     34.050  36.500  54.530
CA    34.990  36.180  53.500
C     34.400  35.140  52.610
N     31.450  35.380  49.830
CA    30.430  36.050  49.090
N     27.550  32.420  47.300
CA    28.260  31.210  47.570
CA    23.980  30.760  50.860
C     23.990  29.320  50.480
N     24.930  23.490  51.630
CA    25.860  22.400  51.550
C     26.140  21.770  52.870
N     28.790  38.630  47.870
CA    29.210  38.760  49.240
C     30.330  39.720  49.410
N     31.610  41.980  47.150
CA    31.220  43.290  46.730
C     30.450  44.080  47.730
N     29.450  43.490  48.410
C     29.710  44.380  50.680
N     30.660  43.500  51.070
CA    31.730  43.770  51.980
C     32.610  44.910  51.620
N     33.100  49.180  53.460
CA    34.310  49.880  53.770
C     34.500  51.210  53.130
CA    35.400  55.560  54.900
C     35.370  56.800  54.080
N     32.890  63.070  54.020
CA    31.870  63.820  53.360
C     30.510  63.320  53.680
N     27.460  62.350  55.710
CA    26.950  62.710  57.000
N     23.170  59.610  57.720
CA    23.160  59.020  56.410
C     24.070  57.870  56.140
CA    21.560  49.280  53.830
C     22.360  48.260  53.090
N     3.930  34.960  15.150
CA    4.420  34.650  13.840
C     5.670  35.390  13.520
N     7.810  36.110  16.010
CA    8.810  35.320  16.630
N     8.350  33.270  15.440
N     9.020  33.350  12.780
CA    9.730  33.810  11.630
C     11.130  34.240  11.870
N     14.820  31.850  10.950
CA    16.020  32.340  10.350
C     17.210  32.080  11.210
CA    21.380  30.590  9.110
C     22.520  30.190  9.980
N     26.020  25.480  12.870
CA    26.240  24.590  13.970
C     25.340  23.410  13.930
N     23.740  20.610  12.160
CA    23.840  19.740  11.020
N     19.240  17.940  10.900
CA    18.760  18.490  12.140
C     18.210  19.850  11.880
CA    15.970  21.280  8.200
C     14.770  20.760  8.920
N     9.730  22.120  12.430
CA    9.130  22.130  13.730
C     8.720  23.500  14.140
N     18.750  49.710  8.360
CA    17.730  49.170  7.520
C     18.180  48.740  6.160
CA    21.740  46.190  5.050
C     21.030  45.000  5.590
N     19.890  45.240  6.260
CA    18.800  44.330  6.460
C     18.070  43.950  5.220
CA    17.420  44.600  2.980
CA    17.610  39.300  59.130
C     18.500  38.120  58.920
CA    17.700  34.080  56.510
C     18.640  32.940  56.710
N     20.730  27.010  57.980
CA    21.300  25.870  58.630
C     20.730  25.830  0.570
N     17.060  24.980  2.770
CA    15.690  24.570  2.770
N     13.420  26.470  6.850
CA    14.610  27.100  7.350
CA    11.420  31.280  5.700
C     11.620  31.780  7.090
N     13.540  36.180  10.270
CA    14.500  36.560  11.260
C     15.180  37.850  10.950
N     10.930  35.520  7.370
CA    11.930  36.040  6.490
C     12.370  35.130  5.400
N     10.590  32.710  3.670
CA    9.610  32.710  2.620
C     9.670  33.930  1.780
CA    10.160  36.380  1.600
C     11.370  36.450  0.740
CA    13.740  35.630  0.510
C     13.670  34.640  58.820
N     14.520  34.910  54.890
CA    15.360  33.950  54.240
C     14.650  33.380  53.060
CA    15.530  32.770  47.600
C     15.030  32.740  46.200
N     14.540  35.100  40.370
CA    13.800  35.700  39.310
C     12.770  36.700  39.720
N     12.140  40.650  40.960
CA    12.510  42.030  40.990
N     10.280  44.530  44.620
CA    9.230  43.730  45.180
C     9.800  42.860  46.250
N     12.560  43.620  48.140
CA    12.740  44.610  49.160
C     11.540  45.080  49.900
CA    6.950  43.920  55.220
C     7.160  42.920  56.300
N     57.090  39.090  0.510
CA    57.240  40.400  1.060
N     61.320  41.900  2.540
CA    62.480  41.230  3.050
C     62.850  40.130  2.120
N     61.860  39.350  1.650
CA    62.210  38.290  0.760
CA    62.270  40.290  57.030
C     63.600  40.970  56.940
N     67.290  39.090  54.570
CA    68.220  39.670  53.650
CA    3.710  37.160  51.120
C     4.960  36.980  51.920
N     9.500  33.250  54.160
CA    10.210  32.420  55.070
C     9.520  31.140  55.410
N     7.350  27.860  54.030
CA    7.280  26.920  52.960
N     2.600  25.010  54.040
CA    2.270  25.660  55.260
N     0.050  28.320  52.260
CA    68.470  28.130  51.850
C     67.590  27.690  52.970
CA    63.250  29.030  58.580
CA    33.340  8.270  57.770
N     30.380  5.320  59.040
CA    29.580  5.360  0.810
C     28.830  6.640  0.940
N     29.520  7.790  0.810
CA    28.890  9.070  0.900
CA    27.410  8.970  56.840
CA    21.560  9.110  55.890
C     20.400  8.480  56.570
CA    15.790  9.260  55.640
C     14.890  8.660  56.660
N     9.120  10.150  59.160
CA    8.090  10.920  0.370
C     8.660  11.880  1.350
N     9.810  15.180  2.420
CA    9.620  16.520  1.980
N     13.380  19.250  3.860
CA    14.120  18.320  4.660
C     15.070  17.510  3.850
C     18.540  19.450  1.400
N     23.620  18.080  4.260
CA    24.290  17.540  5.410
C     25.150  16.350  5.160
N     43.510  37.280  8.660
CA    43.330  37.260  7.240
N     40.780  38.530  3.630
C     38.900  37.050  3.360
N     39.330  36.210  4.320
CA    36.890  38.000  7.370
C     35.920  38.750  6.530
CA    30.760  39.300  7.000
C     29.800  39.270  5.860
CA    25.210  39.550  5.950
C     24.390  39.320  4.720
CA    20.460  35.120  58.910
C     20.480  33.680  59.300
N     19.470  30.740  3.460
CA    18.700  30.660  4.670
N     22.050  26.740  6.390
CA    23.200  26.600  5.550
C     24.150  27.740  5.480
N     24.670  29.500  8.330
CA    25.300  29.150  9.560
C     26.370  28.120  9.430
CA    33.270  26.990  7.770
C     34.250  27.940  7.190
N     50.480  60.150  53.780
CA    49.910  61.070  52.850
C     50.450  60.850  51.480
N     51.940  58.150  50.560
CA    51.410  56.840  50.340
C     50.030  56.750  49.790
CA    47.730  57.720  49.880
C     47.570  58.430  48.580
CA    48.650  59.910  46.920
N     47.200  57.700  42.710
CA    47.710  57.570  41.380
C     47.900  56.200  40.820
CA    46.050  54.800  36.360
C     45.910  53.330  36.110
N     44.370  47.460  34.960
CA    43.920  46.160  35.350
C     42.650  46.210  36.140
N     38.690  47.980  36.180
CA    37.560  48.520  35.500
N     34.590  50.570  39.300
CA    35.390  50.280  40.450
N     36.770  54.480  39.870
CA    36.190  55.610  40.540
C     35.840  55.490  41.980
CA    37.760  55.960  48.960
C     39.160  55.930  49.490
N     10.080  23.560  58.590
CA    9.190  23.210  57.520
C     8.020  24.130  57.540
CA    8.790  28.620  57.400
C     8.780  28.500  55.910
CA    9.060  26.930  54.040
C     7.650  26.820  53.550
CA    5.270  26.590  54.100
CA    68.930  34.720  47.640
C     69.380  36.130  47.440
N     0.920  40.750  43.190
CA    1.630  41.520  42.220
C     2.340  40.610  41.280
N     2.420  37.770  38.310
CA    1.970  37.060  37.160
N     4.390  33.080  36.070
CA    5.480  33.330  36.960
C     5.370  32.940  38.390
CA    3.270  28.720  38.900
C     4.630  28.130  38.730
N     9.080  25.770  41.660
CA    10.410  25.910  42.170
C     10.520  25.710  43.650
N     16.660  18.480  20.590
CA    17.170  17.470  19.710
C     17.660  16.240  20.390
N     16.410  15.160  23.480
CA    15.180  14.590  23.930
C     14.530  13.840  22.820
N     14.470  14.480  21.640
CA    13.950  13.880  20.460
C     14.580  12.590  20.070
CA    16.670  11.260  19.800
C     16.360  10.170  20.770
CA    15.540  5.240  20.530
C     14.770  4.280  21.360
N     13.260  0.660  20.390
CA    13.740  65.620  21.220
C     12.780  65.090  22.220
N     7.280  62.040  24.040
CA    5.910  61.770  24.370
C     4.910  62.110  23.320
N     3.720  62.050  19.410
CA    3.760  61.410  18.130
C     3.560  0.790  15.770
CA    7.120  1.270  12.970
C     6.470  2.560  12.630
N     6.160  8.950  13.320
CA    5.520  10.030  14.000
C     6.340  10.800  14.980
N     24.690  39.340  12.240
CA    23.570  38.560  12.670
C     22.270  39.160  12.250
N     21.620  40.310  9.300
CA    21.500  39.650  8.040
C     21.100  38.220  7.970
CA    21.060  36.110  9.250
CA    17.850  37.000  10.920
C     16.890  37.370  9.850
CA    12.540  35.090  8.800
C     11.880  35.110  7.460
CA    7.470  33.300  5.920
C     7.160  33.180  4.460
N     6.320  29.270  59.090
CA    6.690  28.490  57.960
C     7.880  27.640  58.260
N     12.140  21.340  3.750
CA    13.340  22.050  3.410
N     12.860  23.620  7.420
CA    13.490  23.150  8.610
C     14.970  23.050  8.480
N     20.680  25.720  8.490
CA    21.630  26.230  7.560
C     21.940  27.680  7.750
N     20.660  19.390  26.850
CA    22.000  19.550  27.320
C     22.730  18.250  27.390
N     21.900  15.390  25.680
CA    21.960  14.970  24.310
C     23.010  15.620  23.480
N     23.150  16.960  23.590
CA    24.110  17.750  22.890
CA    27.130  16.570  24.830
CA    31.220  13.090  22.040
C     31.170  11.970  21.060
CA    35.440  10.220  19.660
C     35.450  9.320  18.480
N     36.960  6.800  12.850
CA    36.780  6.400  11.490
C     36.620  7.650  10.700
N     37.670  11.330  9.810
CA    38.880  12.070  9.700
N     37.170  16.640  9.060
CA    35.770  16.420  9.190
C     35.250  16.510  10.590
CA    36.760  19.130  13.890
C     35.710  20.070  13.390
CA    28.650  22.320  14.040
C     27.740  22.070  15.200
N     65.660  64.920  47.310
CA    66.650  65.760  46.720
C     66.190  0.760  45.740
N     63.210  1.970  45.910
CA    62.500  2.870  46.770
C     63.370  3.930  47.350
CA    65.550  4.400  48.340
N     66.320  4.880  46.040
CA    66.720  5.680  44.920
C     65.680  6.680  44.560
CA    65.550  11.560  43.700
C     64.670  12.670  44.190
CA    64.990  17.690  44.200
C     63.840  18.190  45.010
N     62.400  23.720  48.470
CA    62.090  24.330  49.730
C     63.190  24.050  50.690
N     66.960  23.650  51.770
CA    68.240  24.090  51.320
CA    0.410  19.920  54.660
C     69.750  18.850  53.720
N     2.060  17.520  51.420
CA    3.260  16.740  51.350
C     3.500  15.780  52.460
CA    2.130  8.940  54.560
C     1.220  7.980  53.870
N     22.910  11.790  9.980
CA    22.350  12.120  8.710
C     21.420  11.100  8.160
N     19.170  8.990  9.680
CA    17.920  9.240  10.330
C     17.230  10.470  9.850
N     17.980  11.570  9.680
N     17.620  12.060  6.940
CA    17.150  11.860  5.600
C     15.980  10.960  5.480
CA    11.550  11.240  3.110
C     10.200  10.900  3.630
CA    6.090  11.300  1.060
C     4.900  10.900  1.860
N     68.960  12.270  4.240
CA    68.190  12.950  5.240
C     68.350  14.430  5.370
N     69.110  17.990  3.070
CA    69.240  18.680  1.820
CA    2.420  21.230  5.830
C     3.560  20.280  5.810
CA    7.280  21.870  3.760
C     7.580  22.420  5.110
CA    10.470  21.900  11.670
C     11.470  20.870  12.090
N     69.390  11.020  0.690
CA    0.660  11.940  0.860
N     3.100  11.860  4.580
CA    4.430  12.210  4.970
C     4.710  13.640  4.670
N     4.290  14.070  3.470
C     3.660  16.420  3.940
CA    1.700  16.740  5.400
CA    3.750  20.960  9.680
C     5.030  21.260  10.390
CA    6.770  25.320  12.710
C     8.140  25.140  13.260
N     14.460  26.460  13.810
CA    15.710  26.760  13.180
C     15.460  27.910  12.270
N     14.170  30.890  9.860
CA    13.320  32.030  9.700
N     13.030  31.700  4.720
CA    13.610  30.410  4.520
C     12.650  29.280  4.620
CA    8.390  29.260  2.890
N     8.780  23.310  58.020
CA    9.490  22.150  57.560
C     8.850  20.830  57.810
N     60.770  31.370  24.180
CA    60.550  30.000  24.510
C     59.160  29.480  24.690
N     56.570  30.790  23.170
CA    56.070  30.760  21.830
C     56.370  29.480  21.120
N     57.660  29.140  21.230
CA    56.590  25.620  23.340
C     55.210  25.430  22.800
N     54.090  21.850  20.970
CA    52.900  21.160  21.370
C     51.870  20.870  20.330
CA    50.140  16.010  19.010
C     49.170  16.180  17.890
N     47.140  14.310  11.990
CA    46.850  14.350  10.590
C     48.170  14.700  9.970
N     51.990  13.420  9.300
CA    52.860  12.290  9.390
N     57.320  14.310  8.770
CA    57.110  15.710  8.950
C     57.090  16.270  10.340
CA    59.530  14.730  13.930
C     60.570  15.710  13.470
N     63.100  21.370  14.210
CA    63.350  22.700  13.750
C     62.900  23.710  14.750
